/*--------------------------------*- C++ -*----------------------------------*\
| =========                 |                                                 |
| \\      /  F ield         | foam-extend: Open Source CFD                    |
|  \\    /   O peration     | Version:     4.0                                |
|   \\  /    A nd           | Web:         http://www.foam-extend.org         |
|    \\/     M anipulation  |                                                 |
\*---------------------------------------------------------------------------*/
FoamFile
{
    version     2.0;
    format      ascii;
    class       dictionary;
    object      blockMeshDict;
}
// * * * * * * * * * * * * * * * * * * * * * * * * * * * * * * * * * * * * * //

convertToMeters 1;

vertices
(
    (0 0 0) 	// 0
    (1 0 0) 	// 1
    (1 0.1 0)	// 2
    (0 0.1 0)	// 3
    (0 0 0.5)	// 4
    (1 0 0.5)	// 5
    (1 0.1 0.5)	// 6
    (0 0.1 0.5)	// 7
);

blocks
(
    hex (0 1 2 3 4 5 6 7) (100 1 120) simpleGrading (1 1 1)
);

edges
(
);

boundary
(
    leftWall
    {
        type wall;
        faces
        (
            (0 3 7 4)
        );
    }

    rightWall
    {
	type wall;
        faces
        (
            (1 5 6 2)
        );
    }

    topAndBottomWalls
    {
        type wall;
        faces
        (
            (4 7 6 5)
            (0 1 2 3)
        );
    }
    frontAndBack
    {
        type empty;
        faces
        (
            (2 6 7 3)
            (0 4 5 1)
        );
    }
);

mergePatchPairs
(
);


// ************************************************************************* //
