/*--------------------------------*- C++ -*----------------------------------*\
| =========                 |                                                 |
| \\      /  F ield         | foam-extend: Open Source CFD                    |
|  \\    /   O peration     | Version:     4.0                                |
|   \\  /    A nd           | Web:         http://www.foam-extend.org         |
|    \\/     M anipulation  |                                                 |
\*---------------------------------------------------------------------------*/
FoamFile
{
    version     2.0;
    format      ascii;
    class       dictionary;
    location    "constant";
    object      laserProperties;
}
// * * * * * * * * * * * * * * * * * * * * * * * * * * * * * * * * * * * * * //
	r0		  25e-6;
	kappaM		  0.3;
	emS		  0.4;
	emL		  0.1;
	laserPatchName	  topWall;

	laserPowerSeries
	{
	    outOfBounds    clamp;
	    fileName	   "$FOAM_CASE/constant/PowervsTime";
	}

	laserPositionSeries
	{
	    outOfBounds    clamp;
	    fileName	   "$FOAM_CASE/constant/PositionvsTime";
	}
// ************************************************************************* //
