/*--------------------------------*- C++ -*----------------------------------*\
| =========                 |                                                 |
| \\      /  F ield         | foam-extend: Open Source CFD                    |
|  \\    /   O peration     | Version:     4.0                                |
|   \\  /    A nd           | Web:         http://www.foam-extend.org         |
|    \\/     M anipulation  |                                                 |
\*---------------------------------------------------------------------------*/
FoamFile
{
    version     2.0;
    format      ascii;
    class       dictionary;
    location    "constant";
    object      thermalProperties;
}
// * * * * * * * * * * * * * * * * * * * * * * * * * * * * * * * * * * * * * //

metalProperties
{
	C		  1e6; 
	kSCoeff		  (6.31 27.2e-3 -7e-6); //(9.248 1.571e-2 0); 
	kLCoeff		  (6.6 121.4e-4 0.0); //(12.41 3.279e-3 0);
	cpSCoeff	  (412.0 2e-1 -2e-5);
	cpL		  775;
	rhoLCoeff         (7432.7 3.9338e-2 -1.8007e-4);
	Tl		  1723.0;
	Ts                1658.0;
	Hf                2.6e5;
	p0		  101000;
	TVap		  3090;
	Hv		  7.45e6;
	R		  8.3144;
	Mm		  0.05593;
}

gasProperties
{
	kG		  0.0177;
	cpG		  520;
}

TRef          	  298.0;	
hC       	  40; 
// ************************************************************************* //
