/*--------------------------------*- C++ -*----------------------------------*\
| =========                 |                                                 |
| \\      /  F ield         | foam-extend: Open Source CFD                    |
|  \\    /   O peration     | Version:     4.0                                |
|   \\  /    A nd           | Web:         http://www.foam-extend.org         |
|    \\/     M anipulation  |                                                 |
\*---------------------------------------------------------------------------*/
FoamFile
{
    version     2.0;
    format      ascii;
    class       dictionary;
    location    "system";
    object      fvSolution;
}
// * * * * * * * * * * * * * * * * * * * * * * * * * * * * * * * * * * * * * //

solvers
{
    rho
    {}
    pcorr
    {
        solver          PCG;
        preconditioner  DIC;
        tolerance       1e-10;
        relTol          0;
    }

    pd
    {
        solver          PCG;
        preconditioner  DIC;
        tolerance       1e-07;
        relTol          0.05;
    }

    pdFinal
    {
        solver          PCG;
        preconditioner  DIC;
        tolerance       1e-07;
        relTol          0;
    }

    U
    {
        solver          BiCGStab;
        preconditioner  DILU;
        tolerance       1e-06;
        relTol          0;
    }
    
    T
    {
	solver		BiCGStab;
	preconditioner	DILU;
	tolerance	1e-10;
	reTol		0.001;
    }
}

PISO
{
    cAlpha          1;
}

PIMPLE
{
    momentumPredictor yes;
    nOuterCorrectors    5;
    nCorrectors    	2;
    nNonOrthogonalCorrectors 0;
    nAlphaCorr      1;
    nAlphaSubCycles 2;
    nTCorrectors    1500;
    pdRefCell        0;
    pdRefValue       0;
    pRefValue       0;

    residualControl
        {
            "(U|T)"
            {
                tolerance    1e-7;
                relTol        0;
            }
            "pd"
            {
                tolerance    1e-6;
                relTol        0;
            }

	    "temperatureTol"
	    {
		tolerance	1e-7;
		relTol		0;
	    }
        }
}

Controls
{
    relaxCorr    0.7;
}

relaxationFactors
  {
      fields
      {
          pd               0.3;
      }
      equations
      {
          U               0.7;
          //T               0.6;
      }
  }
// ************************************************************************* //
