/*--------------------------------*- C++ -*----------------------------------*\
| =========                 |                                                 |
| \\      /  F ield         | foam-extend: Open Source CFD                    |
|  \\    /   O peration     | Version:     4.0                                |
|   \\  /    A nd           | Web:         http://www.foam-extend.org         |
|    \\/     M anipulation  |                                                 |
\*---------------------------------------------------------------------------*/
FoamFile
{
    version     2.0;
    format      ascii;
    class       dictionary;
    object      blockMeshDict;
}
// * * * * * * * * * * * * * * * * * * * * * * * * * * * * * * * * * * * * * //

convertToMeters 1;

vertices
(

    (0 0 0)
    (1 0 0)
    (1 2 0)
    (0 2 0)
    (0 0 0.1)
    (1 0 0.1)
    (1 2 0.1)
    (0 2 0.1)
);

blocks
(
    hex (0 1 2 3 4 5 6 7) (100 200 1) simpleGrading (1 1 1)
);

edges
(
);

boundary
(
    leftWall
    {
        type wall;
        faces
        (
            (0 4 7 3)
        );
    }
    rightWall
    {
        type wall;
        faces
        (
            (1 2 6 5)
        );
    }
    lowerWall
    {
        type wall;
        faces
        (
            (0 1 5 4)
        );
    }
    atmosphere
    {
        type patch;
        faces
        (
            (2 3 7 6)
        );
    }
    frontAndBack
    {
        type empty;
        faces
        (
            (0 3 2 1)
	    (4 5 6 7)
        );
    }
);

mergePatchPairs
(
);


// ************************************************************************* //
