/*--------------------------------*- C++ -*----------------------------------*\
| =========                 |                                                 |
| \\      /  F ield         | foam-extend: Open Source CFD                    |
|  \\    /   O peration     | Version:     4.0                                |
|   \\  /    A nd           | Web:         http://www.foam-extend.org         |
|    \\/     M anipulation  |                                                 |
\*---------------------------------------------------------------------------*/
FoamFile
{
    version     2.0;
    format      ascii;
    class       dictionary;
    object      blockMeshDict;
}
// * * * * * * * * * * * * * * * * * * * * * * * * * * * * * * * * * * * * * //

convertToMeters 1e-3;

vertices
(
    (0  0 0)
    (50 0 0)
    (50 10 0)
    (0  10 0)
    (0  0 0.1)
    (50 0 0.1)
    (50 10 0.1)
    (0  10 0.1)
);

blocks
(
    hex (0 1 2 3 4 5 6 7) (150 40 1) simpleGrading (1 1 1)
);

edges
(
);

boundary
(
    topWall
    {
        type wall;
        faces
        (
            (3 2 6 7)
        );
    }
    rightWall
    {
        type wall;
        faces
        (
            (1 5 6 2)
        );
    }
    leftWall
    {
        type symmetryPlane;
        faces
        (
            (0 3 7 4)
        );
    }
    bottomWall
    {
        type wall;
        faces
        (
            (0 4 5 1)
        );
    }
    frontAndBack
    {
        type empty;
        faces
        (
            (0 1 2 3)
            (4 7 6 5)
        );
    }

    solidInterface
    {   
        type patch;
        faces
        ();
    }
);

mergePatchPairs
(
);


// ************************************************************************* //
