/*--------------------------------*- C++ -*----------------------------------*\
| =========                 |                                                 |
| \\      /  F ield         | foam-extend: Open Source CFD                    |
|  \\    /   O peration     | Version:     4.0                                |
|   \\  /    A nd           | Web:         http://www.foam-extend.org         |
|    \\/     M anipulation  |                                                 |
\*---------------------------------------------------------------------------*/
FoamFile
{
    version     2.0;
    format      ascii;
    class       dictionary;
    object      blockMeshDict;
}
// * * * * * * * * * * * * * * * * * * * * * * * * * * * * * * * * * * * * * //

convertToMeters 1;

vertices
(
    (0 0 0)
    (100e-3 0 0)
    (100e-3 5e-3 0)
    (0 5e-3 0)
    (0 0 0.1e-3)
    (100e-3 0 0.1e-3)
    (100e-3 5e-3 0.1e-3)
    (0 5e-3 0.1e-3)
);

blocks
(
    hex (0 1 2 3 4 5 6 7) (400 20 1) simpleGrading (1 1 1)
);

edges
(
);

boundary
(
    topWall
    {
        type wall;
        faces
        (
            (3 7 6 2)
        );
    }
    leftAndRightWalls
    {
        type wall;
        faces
        (
            (0 4 7 3)
            (2 6 5 1)
        );
    }
    axis
    {
        type symmetryPlane;
        faces
        (
            (1 5 4 0)
        );
    }
    frontAndBack
    {
        type empty;
        faces
        (
            (0 3 2 1)
            (4 5 6 7)
        );
    }

    solidInterface
    {   
        type patch;
        faces
        ();
    }
);

mergePatchPairs
(
);


// ************************************************************************* //
